# generated using pymatgen
data_TiSiPd
_symmetry_space_group_name_H-M   'P 1'
_cell_length_a   5.88234600
_cell_length_b   5.88234600
_cell_length_c   5.88234600
_cell_angle_alpha   90.00000000
_cell_angle_beta   90.00000000
_cell_angle_gamma   90.00000000
_symmetry_Int_Tables_number   1
_chemical_formula_structural   TiSiPd
_chemical_formula_sum   'Ti4 Si4 Pd4'
_cell_volume   203.54090373
_cell_formula_units_Z   4
loop_
 _symmetry_equiv_pos_site_id
 _symmetry_equiv_pos_as_xyz
  1  'x, y, z'
loop_
 _atom_type_symbol
 _atom_type_oxidation_number
  Ti2+  2.0
  Si4-  -4.0
  Pd2+  2.0
loop_
 _atom_site_type_symbol
 _atom_site_label
 _atom_site_symmetry_multiplicity
 _atom_site_fract_x
 _atom_site_fract_y
 _atom_site_fract_z
 _atom_site_occupancy
  Ti2+  Ti0  1  0.50000000  0.00000000  0.00000000  1
  Ti2+  Ti1  1  0.50000000  0.50000000  0.50000000  1
  Ti2+  Ti2  1  0.00000000  0.00000000  0.50000000  1
  Ti2+  Ti3  1  0.00000000  0.50000000  0.00000000  1
  Si4-  Si4  1  0.00000000  0.00000000  0.00000000  1
  Si4-  Si5  1  0.00000000  0.50000000  0.50000000  1
  Si4-  Si6  1  0.50000000  0.00000000  0.50000000  1
  Si4-  Si7  1  0.50000000  0.50000000  0.00000000  1
  Pd2+  Pd8  1  0.25000000  0.25000000  0.25000000  1
  Pd2+  Pd9  1  0.25000000  0.75000000  0.75000000  1
  Pd2+  Pd10  1  0.75000000  0.25000000  0.75000000  1
  Pd2+  Pd11  1  0.75000000  0.75000000  0.25000000  1
